/*--------------------------------*- C++ -*----------------------------------*\
  =========                 |
  \\      /  F ield         | OpenFOAM: The Open Source CFD Toolbox
   \\    /   O peration     | Website:  https://openfoam.org
    \\  /    A nd           | Version:  6
     \\/     M anipulation  |
\*---------------------------------------------------------------------------*/
FoamFile
{
    version     2.0;
    format      ascii;
    class       dictionary;
    location    "constant";
    object      radiationProperties;
}
// * * * * * * * * * * * * * * * * * * * * * * * * * * * * * * * * * * * * * //

radiation on;

radiationModel  P1;

/*
radiationModel  fvDOM;

fvDOMCoeffs
{
    nPhi        3;      // azimuthal angles in PI/2 on X-Y.(from Y to X)
    nTheta      5;      // polar angles in PI (from Z to X-Y plane)
    tolerance   1e-3;   // convergence tolerance for radiation iteration
    maxIter     10;     // maximum number of iterations
}
*/

// Number of flow iterations per radiation iteration
solverFreq 10;

// Number of bands in spectrum
noOfBands 4;

absorptionEmissionModel constantAbsorptionEmission;

constantAbsorptionEmissionCoeffs
{
 absorptivity    absorptivity    [0 -1 0 0 0 0 0] 0.5;
 emissivity      emissivity      [0 -1 0 0 0 0 0] 0.5;
 E               E               [1 -1 -3 0 0 0 0] 0;

}

/*
absorptionEmissionModel WSGGAbsorptionEmission;

absorptionEmissionModel kDistAbsorptionEmission;
*/

scatterModel    none;

sootModel       none;


// ************************************************************************* //
