/*--------------------------------*- C++ -*----------------------------------*\
  =========                 |
  \\      /  F ield         | OpenFOAM: The Open Source CFD Toolbox
   \\    /   O peration     | Website:  https://openfoam.org
    \\  /    A nd           | Version:  6
     \\/     M anipulation  |
\*---------------------------------------------------------------------------*/
FoamFile
{
    version     2.0;
    format      ascii;
    class       volScalarField;
    location    "0";
    object      Ydefault;
}
// * * * * * * * * * * * * * * * * * * * * * * * * * * * * * * * * * * * * * //

dimensions      [0 0 0 0 0 0 0];

internalField   uniform 0;

boundaryField
{
    walls
    {
        type            zeroGradient;
    }
    billet
    {
        type            zeroGradient;
    }
    exhaust
    {
        /*
        type            inletOutlet;
        inletValue      $internalField;
        value           $internalField;
        */
        type            zeroGradient;
    }
    burner_2
    {
        type            fixedValue;
        value           $internalField;
    }
    burner_1
    {
        type            fixedValue;
        value           $internalField;
    }
}

// ************************************************************************* //
