/*––––––––––––––––––––––––––––––--*- C++ -*–––––––––––––––––––––––––––––––––-*\\ 
| =========                   |                                                 | 
| \\\\      /  F ield         | OpenFOAM: The Open Source CFD Toolbox           | 
|  \\\\    /   O peration     | Version:  6                                     | 
|   \\\\  /    A nd           | Website:  https://openfoam.org                  | 
|    \\\\/     M anipulation  |                                                 | 
\\*–––––––––––––––––––––––––––––––––––––––––––––––––––––––––––––––––––––––––––*/ 
FoamFile 
{ 
    version     2.0; 
    format      ascii; 
    class       dictionary; 
    object      blockMeshDict; 
} 
// * * * * * * * * * * * * * * * * * * * * * * * * * * * * * * * * * * * * * // 
 
convertToMeters 1; 
 
vertices 
( // Furnace
    (0 0 0) 
    (16 0 0) 
    (16 1.5 0) 
    (0 1.5 0) 
    (0 0 5.1) 
    (16 0 5.1) 
    (16 1.5 5.1) 
    (0 1.5 5.1) 
  // Exhaust duct
    (16 1.5 4.125) 
    (16 1.5 0.975) 
    (15.05 1.5 0.975) 
    (15.05 1.5 4.125) 
  // Burner tile exit
    (0.48 1.5 1.15) 
    (1.88 1.5 1.15) 
    (3.28 1.5 1.15) 
    (4.68 1.5 1.15) 
    (6.08 1.5 1.15) 
    (7.48 1.5 1.15) 
    (8.88 1.5 1.15)
    (10.28 1.5 1.15) 
    (0.48 1.5 2.55) 
    (1.88 1.5 2.55) 
    (3.28 1.5 2.55) 
    (4.68 1.5 2.55) 
    (6.08 1.5 2.55) 
    (7.48 1.5 2.55) 
    (8.88 1.5 2.55) 
    (10.28 1.5 2.55) 
    (0.48 1.5 3.95) 
    (1.88 1.5 3.95) 
    (3.28 1.5 3.95) 
    (4.68 1.5 3.95) 
    (6.08 1.5 3.95) 
    (7.48 1.5 3.95) 
    (8.88 1.5 3.95) 
    (10.28 1.5 3.95) 
);

blocks 
( 
    hex (0 1 2 3 4 5 6 7) (16000 1500 5100) simpleGrading (1 1 1) 
); 
 
edges 
( 
); 
 
boundary 
( 
    exhaust 
    { 
        type wall; 
        faces 
        ( 
            (3 7 6 2) 
        ); 
    } 
    walls 
    { 
        type wall; 
        faces 
        ( 
            (0 4 7 3) 
            (2 6 5 1) 
            (1 5 4 0) 
        ); 
    }
); 
 
mergePatchPairs 
( 
); 

// ************************************************************************* //
