/*--------------------------------*- C++ -*----------------------------------*\
  =========                 |
  \\      /  F ield         | OpenFOAM: The Open Source CFD Toolbox
   \\    /   O peration     | Website:  https://openfoam.org
    \\  /    A nd           | Version:  6
     \\/     M anipulation  |
\*---------------------------------------------------------------------------*/
FoamFile
{
    version     2.0;
    format      ascii;
    class       surfaceScalarField;
    location    "0";
    object      phi;
}
// * * * * * * * * * * * * * * * * * * * * * * * * * * * * * * * * * * * * * //

dimensions      [1 0 -1 0 0 0 0];

internalField   uniform 0;

boundaryField
{
    exhaust
    {
        type            calculated;
        value           uniform 0;
    }

    topWall
    {
        type            calculated;
        value           uniform 0;
    }

    bottomWall
    {
        type            calculated;
        value           uniform 0;
    }

    sideWalls
    {
        type            calculated;
        value           uniform 0;
    }

    "burnerTile.*"
    {
        type            calculated;
        value           uniform 0;
    }

    "burnerA.*"
    {
        type            calculated;
        value           uniform 0;
    }

    "burnerB.*"
    {
        type            calculated;
        value           uniform 0;
    }
}


// ************************************************************************* //
