/*--------------------------------*- C++ -*----------------------------------*\
  =========                 |
  \\      /  F ield         | OpenFOAM: The Open Source CFD Toolbox
   \\    /   O peration     | Website:  https://openfoam.org
    \\  /    A nd           | Version:  6
     \\/     M anipulation  |
\*---------------------------------------------------------------------------*/
FoamFile
{
    version     2.0;
    format      ascii;
    class       polyBoundaryMesh;
    location    "constant/polyMesh";
    object      boundary;
}
// * * * * * * * * * * * * * * * * * * * * * * * * * * * * * * * * * * * * * //

5
(
    walls
    {
        type            wall;
        nFaces          20632;
        startFace       1036821;
    }
    billet
    {
        type            wall;
        nFaces          9114;
        startFace       1057453;
    }
    exhaust
    {
        type            patch;
        nFaces          615;
        startFace       1066567;
    }
    burner_2
    {
        type            patch;
        nFaces          841;
        startFace       1067182;
    }
    burner_1
    {
        type            patch;
        nFaces          1340;
        startFace       1068023;
    }
)

// ************************************************************************* //
